Version 4
SHEET 1 880 680
SYMBOL cap 160 144 R0
SYMATTR InstName C1
SYMBOL res 112 80 R90
WINDOW 0 0 56 VBottom 2
WINDOW 3 32 56 VTop 2
SYMATTR InstName R1
