Version 4
SHEET 1 880 680
WIRE 304 192 304 128
WIRE 0 0 0 0
SYMBOL res 288 32 R0
SYMATTR InstName R1
SYMBOL res 288 176 R0
SYMATTR InstName R2
