Version 4
SHEET 1 880 680
WIRE 304 48 64 48
WIRE 304 80 304 48
WIRE 64 128 64 48
WIRE 304 224 304 160
WIRE 64 352 64 208
WIRE 304 352 304 288
WIRE 304 352 64 352
WIRE 64 384 64 352
FLAG 64 384 0
SYMBOL voltage 64 112 R0
WINDOW 3 -291 118 Left 2
WINDOW 123 0 0 Left 0
WINDOW 39 0 0 Left 0
SYMATTR InstName V1
SYMATTR Value PULSE(0 1 10m 0 0 10m)
SYMBOL res 288 64 R0
SYMATTR InstName R1
SYMATTR Value 10
SYMBOL cap 288 224 R0
SYMATTR InstName C1
SYMATTR Value 100µ
TEXT 56 432 Left 2 !.tran 100m
