Version 4
SHEET 1 880 680
WIRE 192 -112 160 -112
WIRE 320 -112 256 -112
WIRE 160 0 160 -112
WIRE 176 0 160 0
WIRE 320 0 320 -112
WIRE 320 0 256 0
WIRE -160 64 -160 16
WIRE 160 112 160 0
WIRE 160 112 112 112
WIRE 224 160 224 96
WIRE -160 176 -160 144
WIRE -48 176 -160 176
WIRE 160 176 160 112
WIRE 192 176 160 176
WIRE 32 192 32 112
WIRE 320 192 320 0
WIRE 320 192 256 192
WIRE 464 192 320 192
WIRE 576 192 464 192
WIRE 192 208 176 208
WIRE -160 240 -160 176
WIRE 96 256 96 208
WIRE 96 256 80 256
WIRE 224 256 224 224
WIRE 256 256 224 256
WIRE 96 288 96 256
WIRE 464 288 464 192
WIRE 256 368 256 256
WIRE -160 400 -160 320
WIRE -48 400 -48 176
WIRE 96 400 96 368
WIRE 96 400 -48 400
WIRE 464 416 464 368
WIRE 96 528 96 400
FLAG 576 192 Output
IOPIN 576 192 Out
FLAG 96 528 0
FLAG -160 16 +V
FLAG 224 96 +V
FLAG -160 400 -V
FLAG 256 368 -V
FLAG 80 256 INPUT
IOPIN 80 256 In
FLAG 464 416 0
FLAG 32 192 0
SYMBOL voltage -160 48 R0
WINDOW 123 0 0 Left 2
WINDOW 39 0 0 Left 2
SYMATTR InstName V2
SYMATTR Value 15V
SYMBOL voltage -160 224 R0
WINDOW 123 0 0 Left 2
WINDOW 39 0 0 Left 2
SYMATTR InstName V3
SYMATTR Value 15V
SYMBOL voltage 96 272 R0
WINDOW 123 -47 121 VLeft 2
WINDOW 39 0 0 Left 2
WINDOW 3 -182 158 Left 2
SYMATTR Value2 AC 1V
SYMATTR Value SINE(0 0.05 1k)
SYMATTR InstName V1
SYMBOL res 128 96 R90
WINDOW 0 0 56 VBottom 2
WINDOW 3 32 56 VTop 2
SYMATTR InstName R2
SYMATTR Value 10k
SYMBOL res 192 192 R90
WINDOW 0 0 56 VBottom 2
WINDOW 3 32 56 VTop 2
SYMATTR InstName R3
SYMATTR Value 10k
SYMBOL res 272 -16 R90
WINDOW 0 0 56 VBottom 2
WINDOW 3 32 56 VTop 2
SYMATTR InstName R1
SYMATTR Value 100k
SYMBOL res 448 272 R0
SYMATTR InstName R4
SYMATTR Value {RX}
SYMBOL Opamps\\LT1115 224 128 R0
SYMATTR InstName U1
SYMBOL cap 256 -128 R90
WINDOW 0 0 32 VBottom 2
WINDOW 3 32 32 VTop 2
SYMATTR InstName C1
SYMATTR Value 10p
TEXT 328 496 Left 2 !.step param RX list 16 32 48 64
TEXT 344 552 Left 2 !.tran 10m
