Version 4
SHEET 1 880 680
WIRE 96 0 64 0
WIRE 240 0 176 0
WIRE 320 0 240 0
WIRE 480 0 400 0
WIRE -64 48 -64 0
WIRE 64 64 64 0
WIRE -64 160 -64 128
WIRE 48 160 -64 160
WIRE 336 160 336 96
WIRE 240 176 240 0
WIRE 304 176 240 176
WIRE 480 192 480 0
WIRE 480 192 368 192
WIRE 576 192 480 192
WIRE 304 208 176 208
WIRE -64 224 -64 160
WIRE 176 256 176 208
WIRE 336 288 336 224
WIRE -64 352 -64 304
WIRE 176 368 176 336
WIRE 176 368 160 368
WIRE 176 400 176 368
WIRE 48 528 48 160
WIRE 96 528 48 528
WIRE 176 528 176 480
WIRE 176 528 96 528
WIRE 96 560 96 528
FLAG 576 192 Output
IOPIN 576 192 Out
FLAG 96 560 0
FLAG -64 0 +V
FLAG 336 96 +V
FLAG -64 352 -V
FLAG 336 288 -V
FLAG 160 368 INPUT
IOPIN 160 368 In
FLAG 64 64 0
SYMBOL Opamps\\UniversalOpamp2 336 192 R0
SYMATTR InstName U1
SYMBOL voltage -64 32 R0
WINDOW 123 0 0 Left 2
WINDOW 39 0 0 Left 2
SYMATTR InstName V2
SYMATTR Value 15V
SYMBOL voltage -64 208 R0
WINDOW 123 0 0 Left 2
WINDOW 39 0 0 Left 2
SYMATTR InstName V3
SYMATTR Value 15V
SYMBOL voltage 176 384 R0
WINDOW 123 -47 121 VLeft 2
WINDOW 39 20 106 Left 2
SYMATTR Value2 AC 1V
SYMATTR SpiceLine Rser=0
SYMATTR InstName V1
SYMATTR Value ""
SYMBOL res 192 -16 R90
WINDOW 0 0 56 VBottom 2
WINDOW 3 32 56 VTop 2
SYMATTR InstName R2
SYMATTR Value 1k
SYMBOL res 160 240 R0
SYMATTR InstName R3
SYMATTR Value 1k
SYMBOL res 416 -16 R90
WINDOW 0 0 56 VBottom 2
WINDOW 3 32 56 VTop 2
SYMATTR InstName R1
SYMATTR Value 10k
TEXT 360 400 Left 2 !.ac oct 20 0.1 100meg
