Version 4
SHEET 1 880 680
WIRE -80 -320 -128 -320
WIRE -80 -240 -80 -320
WIRE -80 -240 -256 -240
WIRE -16 -176 -160 -176
WIRE -160 -128 -160 -176
WIRE -256 -64 -256 -240
WIRE -208 -64 -256 -64
WIRE -80 -64 -112 -64
WIRE -240 112 -288 112
WIRE -16 112 -16 -176
WIRE -16 112 -160 112
WIRE -288 208 -288 112
WIRE -176 208 -288 208
WIRE -80 208 -80 -64
WIRE -80 208 -112 208
WIRE -16 320 -16 112
WIRE -16 320 -80 320
SYMBOL npn -112 -128 R90
WINDOW 0 62 27 VRight 2
WINDOW 3 119 16 VRight 2
SYMATTR InstName Q1
SYMATTR Value 2SCR554P
SYMBOL cap -80 304 R90
WINDOW 0 0 32 VBottom 2
WINDOW 3 32 32 VTop 2
SYMATTR InstName C1
SYMATTR Value 1000p
SYMATTR SpiceLine V=100
SYMBOL cap -112 192 R90
WINDOW 0 0 32 VBottom 2
WINDOW 3 32 32 VTop 2
SYMATTR InstName C2
SYMATTR Value 4700p
SYMATTR SpiceLine V=100
SYMBOL cap -128 -336 R90
WINDOW 0 0 32 VBottom 2
WINDOW 3 32 32 VTop 2
SYMATTR InstName C3
SYMATTR Value 0.1µ
SYMATTR SpiceLine V=63
SYMBOL res -144 96 R90
WINDOW 0 0 56 VBottom 2
WINDOW 3 32 56 VTop 2
SYMATTR InstName R1
SYMATTR Value 5.6k
SYMATTR SpiceLine pwr=0.5
