Version 4
SHEET 1 880 680
WIRE -64 48 -64 0
WIRE 224 160 224 64
WIRE -64 176 -64 128
WIRE 48 176 -64 176
WIRE 192 176 48 176
WIRE 416 192 256 192
WIRE 192 208 112 208
WIRE -64 224 -64 176
WIRE 48 240 48 176
WIRE 112 304 112 208
WIRE 224 304 224 224
WIRE -64 384 -64 304
WIRE 112 448 112 384
FLAG 416 192 Output
IOPIN 416 192 Out
FLAG 112 448 0
FLAG -64 0 +V
FLAG 224 64 +V
FLAG -64 384 -V
FLAG 224 304 -V
FLAG 48 240 0
SYMBOL Opamps\\UniversalOpamp2 224 192 R0
SYMATTR InstName U1
SYMBOL voltage -64 32 R0
WINDOW 123 0 0 Left 2
WINDOW 39 0 0 Left 2
SYMATTR InstName V2
SYMATTR Value 15V
SYMBOL voltage -64 208 R0
WINDOW 123 0 0 Left 2
WINDOW 39 0 0 Left 2
SYMATTR InstName V3
SYMATTR Value 15V
SYMBOL voltage 112 288 R0
WINDOW 123 24 124 Left 2
WINDOW 39 0 0 Left 2
SYMATTR Value2 AC 1V
SYMATTR InstName V1
SYMATTR Value ""
TEXT 296 360 Left 2 !.ac oct 20 0.1 100meg
