Version 4
SHEET 1 880 680
SYMBOL Opamps\\UniversalOpamp2 224 192 R0
SYMATTR InstName U1
